Circuit: * C:\Users\User\Desktop\Other\Projects\UVEEC\Seaglider\SG_Proto_PDB\Breakout Boards\Remote Power Enable\Remote Power Enable (RPE)\Simulations\Normally open and normally closed MOSFET switch.asc

Direct Newton iteration failed to find .op point.  (Use ".option noopiter" to skip.)
Starting Gmin stepping
Gmin = 10
Gmin = 1.07374
Gmin = 0.115292
Gmin = 0.0123794
Gmin = 0.00132923
Gmin = 0.000142725
vernier = 0.5
Gmin = 2.39452e-005
vernier = 0.25
vernier = 0.333333
Gmin = 1.28389e-005
vernier = 0.444444
vernier = 0.592592
Gmin = 4.41023e-006
vernier = 0.790123
Gmin = 8.60498e-007
vernier = 1
Gmin = 9.23953e-008
Gmin = 9.92087e-009
Gmin = 1.06525e-009
Gmin = 1.1438e-010
Gmin = 1.22814e-011
Gmin = 1.31871e-012
Gmin = 1.41595e-013
Gmin = 0
Gmin stepping succeeded in finding the operating point.


Date: Mon Dec 11 19:07:40 2023
Total elapsed time: 1.859 seconds.

tnom = 27
temp = 27
method = modified trap
totiter = 63017
traniter = 62288
tranpoints = 30835
accept = 30634
rejected = 201
matrix size = 49
fillins = 37
solver = Normal
Matrix Compiler1: 5.65 KB object code size  1.3/0.5/[0.3]
Matrix Compiler2: 4.90 KB object code size  0.5/0.6/[0.4]

