Circuit: * C:\Users\User\Desktop\Other\Projects\UVEEC\Seaglider\SG_Proto_PDB\Breakout Boards\Remote Power Enable\Remote Power Enable (RPE)\Simulations\Normally open and normally closed MOSFET switch.asc

Direct Newton iteration for .op point succeeded.

Date: Tue Dec 12 20:16:32 2023
Total elapsed time: 1.464 seconds.

tnom = 27
temp = 27
method = modified trap
totiter = 62520
traniter = 62484
tranpoints = 30909
accept = 30685
rejected = 224
matrix size = 49
fillins = 32
solver = Normal
Matrix Compiler1: 5.18 KB object code size  0.8/0.4/[0.3]
Matrix Compiler2: off  [0.3]/0.5/0.3

